%chk=1-3-5-TFB.chk
#p PBE1PBE/6-311++G(d,p) density=current nosymm

1 3 5-DFB SP

0 1
C 1.178498546 0.680465881 0.000000000
C 1.217502391 -0.702950120 0.000000000
C 0.000000000 -1.360915686 0.000000000
C -1.217502391 -0.702950120 0.000000000
C -1.178498546 0.680465881 0.000000000
C 0.000000000 1.406035518 0.000000000
H 2.154583455 -1.243860366 0.000000000
H -2.154583455 -1.243860366 0.000000000
H 0.000000000 2.488014161 0.000000000
F 0.000000000 -2.698572883 0.000000000
F -2.337080067 1.349064058 0.000000000
F 2.337080067 1.349064058 0.000000001

