%chk=benzene-CAT.chk
#p opt freq nosymm PBE1PBE/6-311++G(d,p) density=current

benzene SP

1 2
C -0.695342149 1.204305250 0.000000000
C 0.695340276 1.204306198 0.000000000
C 1.390708471 0.000000884 0.000000000
C 0.695342043 -1.204305288 0.000000000
C -0.695340662 -1.204306245 0.000000000
C -1.390708640 -0.000001027 0.000000000
H -1.237958706 2.144233389 0.000000000
H 1.237955611 2.144235066 0.000000000
H 2.476011463 0.000001423 0.000000000
H 1.237958505 -2.144233526 0.000000000
H -1.237955584 -2.144235347 0.000000000
H -2.476011633 -0.000001783 0.000000000

