%chk=1-2-3-TFB.chk
#p PBE1PBE/6-311++G(d,p) density=current nosymm

1 2 3-TFB SP

0 1
C 1.195039600 0.689992522 0.000000000
C 1.205558469 -0.699469499 0.000000000
C 0.001344828 -1.378893403 0.000000000
C -1.207332748 -0.697138489 0.000000001
C -1.193271328 0.690542612 0.000000000
C -0.002939112 1.393900955 0.000000000
H 2.133567557 1.231808920 0.000000000
H 2.128757896 -1.266311780 0.000000000
H -0.032334562 2.476817966 0.000000000
F -0.024481915 -2.711723764 0.000000000
F -2.357419963 -1.360638947 0.000000000
F -2.360619702 1.334279263 0.000000000

