%chk=1-4-DFB.chk
#p PBE1PBE/6-311++G(d,p) density=current nosymm

1 4-DFB SP

0 1
C 1.211215374 0.694971196 0.000000001
C 1.211215374 -0.694971196 -0.000000001
C 0.000000000 -1.363514206 0.000000000
C -1.211215374 -0.694971196 -0.000000001
C -1.211215374 0.694971196 0.000000001
C 0.000000000 1.363514206 0.000000000
H 2.137077759 1.257946906 0.000000001
H 2.137077759 -1.257946906 -0.000000001
H -2.137077759 -1.257946906 0.000000000
H -2.137077759 1.257946906 0.000000000
F 0.000000000 -2.707327163 0.000000001
F 0.000000000 2.707327163 -0.000000001

