%chk=1-2-3-5-TtFB-ANI.chk
#p opt freq PBE1PBE/6-311++G(d,p) density=current nosymm

1 2 3 4 TtFB SP

-1 2
C 1.176738820 0.679445522 0.000000002
C 1.211772021 -0.703335895 0.000000000
C 0.003052224 -1.375882824 -0.000000001
C -1.207016871 -0.696952430 0.000000001
C -1.189790580 0.690519355 0.000000000
C -0.003171776 1.401285973 0.000000000
H 2.147547864 -1.247104112 0.000000000
H -0.006492682 2.483559383 -0.000000001
F -0.016345011 -2.705662525 0.000000000
F -2.357104187 -1.360468177 -0.000000001
F -2.351310024 1.338271212 0.000000000
F 2.335054720 1.347907700 -0.000000001

