%chk=1-2-4-5-TtFB.chk
#p PBE1PBE/6-311++G(d,p) density=current nosymm

1 2 4 5 TtFB SP

0 1
C 1.196298725 0.684992220 0.000000000
C 1.208630211 -0.697851296 0.000000000
C 0.004982201 -1.378685691 -0.000000001
C -1.196298725 -0.684992220 0.000000000
C -1.208630211 0.697851296 0.000000000
C -0.004982201 1.378685691 -0.000000001
H 2.146683601 -1.239138703 0.000000000
H -2.146683601 1.239138703 0.000000000
F -0.006825383 -2.710863978 0.000000001
F -2.344201062 -1.361074116 0.000000000
F 0.006825383 2.710863978 0.000000000
F 2.344201062 1.361074116 0.000000000

