%chk=HFB-ANI.chk
#p opt freq PBE1PBE/6-311++G(d,p) density=current nosymm

HFB SP

-1 2
C 1.231668191 0.711104006 0.000000000
C 1.231668191 -0.711104006 0.000000000
C 0.000000000 -1.422207916 0.000000000
C -1.231668191 -0.711104006 0.000000000
C -1.231668191 0.711104006 0.000000000
C 0.000000000 1.422207916 0.000000000
F 2.407079872 1.389728212 0.000000000
F 2.407079872 -1.389728212 0.000000000
F 0.000000000 -2.779456425 0.000000000
F -2.407079872 -1.389728212 0.000000000
F -2.407079872 1.389728212 0.000000000
F 0.000000000 2.779456425 0.000000000

