%chk=1-2-DFB-ANI.chk
#p opt freq PBE1PBE/6-311++G(d,p) density=current nosymm

1 2-DFB SP

-1 2
C 1.201201504 0.690785774 0.000000000
C 1.206527970 -0.699793837 0.000000001
C 0.003995515 -1.381117197 0.000000000
C -1.197907222 -0.687075448 0.000000000
C -1.209206485 0.695018885 0.000000000
C -0.002380374 1.385757277 0.000000000
H 2.142364440 1.228859032 0.000000000
H 2.129170924 -1.268983834 0.000000000
H -2.163584633 1.209208570 0.000000000
H -0.007034876 2.469855560 0.000000000
F -0.015338406 -2.716531101 -0.000000001
F -2.344873853 -1.371234166 0.000000001

