%chk=1-2-3-4-TtFB-ANI.chk
#p opt freq PBE1PBE/6-311++G(d,p) density=current nosymm

1 2 3 4 TtFB SP

-1 2
C 1.201667170 0.694891877 0.000000000
C 1.201667170 -0.694891877 -0.000000001
C 0.001302647 -1.378116444 -0.000000005
C -1.206485011 -0.693844980 0.000000001
C -1.206485011 0.693844980 0.000000000
C 0.001302647 1.378116444 0.000000004
H 2.127299981 1.257268538 -0.000000004
H 2.127299981 -1.257268538 0.000000003
F -0.023362053 -2.710829952 0.000000003
F -2.357488222 -1.351101454 -0.000000004
F -2.357488222 1.351101454 0.000000002
F -0.023362053 2.710829952 -0.000000001

